Version 4
SHEET 1 2124 680
WIRE 64 -1008 0 -1008
WIRE 160 -1008 64 -1008
WIRE 336 -1008 240 -1008
WIRE 464 -1008 336 -1008
WIRE 608 -1008 464 -1008
WIRE 752 -1008 608 -1008
WIRE 1280 -1008 752 -1008
WIRE 0 -992 0 -1008
WIRE -288 -960 -288 -992
WIRE 64 -960 64 -1008
WIRE 336 -960 336 -1008
WIRE 608 -960 608 -1008
WIRE 752 -960 752 -1008
WIRE 0 -912 0 -928
WIRE 1280 -864 1280 -1008
WIRE -288 -848 -288 -880
WIRE -48 -832 -80 -832
WIRE 64 -832 64 -880
WIRE 64 -832 32 -832
WIRE 96 -832 64 -832
WIRE 112 -832 96 -832
WIRE 192 -832 176 -832
WIRE 224 -832 192 -832
WIRE 336 -832 336 -880
WIRE 336 -832 304 -832
WIRE 368 -832 336 -832
WIRE 384 -832 368 -832
WIRE 464 -832 448 -832
WIRE 496 -832 464 -832
WIRE 608 -832 608 -880
WIRE 608 -832 576 -832
WIRE 640 -832 608 -832
WIRE 656 -832 640 -832
WIRE 752 -832 752 -880
WIRE 752 -832 720 -832
WIRE 784 -832 752 -832
WIRE 880 -832 848 -832
WIRE 928 -832 880 -832
WIRE 992 -832 928 -832
WIRE 1024 -832 992 -832
WIRE 1120 -832 1104 -832
WIRE 1136 -832 1120 -832
WIRE -192 -784 -208 -784
WIRE -176 -784 -192 -784
WIRE -80 -784 -80 -832
WIRE -80 -784 -112 -784
WIRE 64 -784 64 -832
WIRE 336 -784 336 -832
WIRE 608 -784 608 -832
WIRE 752 -768 752 -832
WIRE 880 -768 880 -832
WIRE 928 -768 928 -832
WIRE 1136 -768 1136 -832
WIRE -288 -752 -288 -784
WIRE -208 -752 -208 -784
WIRE -80 -736 -80 -784
WIRE 0 -736 -80 -736
WIRE 192 -736 192 -832
WIRE 272 -736 192 -736
WIRE 464 -736 464 -832
WIRE 544 -736 464 -736
WIRE -288 -640 -288 -672
WIRE -208 -640 -208 -672
WIRE 64 -640 64 -688
WIRE 336 -640 336 -688
WIRE 608 -640 608 -688
WIRE 752 -640 752 -688
WIRE 880 -640 880 -704
WIRE 928 -640 928 -688
WIRE 1136 -640 1136 -704
WIRE 1280 -640 1280 -784
WIRE 800 -576 752 -576
WIRE 832 -576 800 -576
WIRE 992 -576 992 -832
WIRE 992 -576 912 -576
WIRE 752 -544 752 -576
WIRE 752 -448 752 -480
FLAG 1280 -640 0
FLAG 64 -640 0
FLAG 0 -912 0
FLAG -288 -848 0
FLAG 336 -640 0
FLAG 608 -640 0
FLAG 464 -1008 Vcc
FLAG 64 -1008 Vcc_1stage
FLAG -192 -784 in
FLAG 96 -832 out1
FLAG 368 -832 out2
FLAG 640 -832 out3
FLAG 752 -640 0
FLAG 880 -640 0
FLAG 928 -640 0
FLAG -208 -640 0
FLAG -288 -992 Vm
FLAG -288 -640 0
FLAG -288 -784 Vc
FLAG 1136 -640 0
FLAG 1120 -832 AF
FLAG 752 -448 0
FLAG 800 -576 AGC
SYMBOL voltage 1280 -880 R0
WINDOW 0 48 48 Left 2
WINDOW 3 48 64 Left 2
WINDOW 123 0 0 Left 2
WINDOW 39 0 0 Left 2
SYMATTR InstName V1
SYMATTR Value 9.0V
SYMBOL cap -176 -768 R270
WINDOW 0 32 32 VTop 2
WINDOW 3 0 32 VBottom 2
SYMATTR InstName C1
SYMATTR Value 0.001µ
SYMATTR SpiceLine V=10 Irms=41.2m Rser=2.70485 Lser=0 mfg="KEMET" pn="C0805C102K8RAC" type="X7R"
SYMBOL Misc\\EuropeanResistor 48 -848 R90
WINDOW 0 5 56 VBottom 2
WINDOW 3 27 56 VTop 2
SYMATTR InstName R1
SYMATTR Value 330K
SYMBOL Misc\\EuropeanResistor 48 -976 R0
WINDOW 0 32 48 Left 2
WINDOW 3 32 64 Left 2
SYMATTR InstName R2
SYMATTR Value 3.3K
SYMBOL npn 0 -784 R0
WINDOW 0 64 32 Left 2
WINDOW 3 64 48 Left 2
SYMATTR InstName Q1
SYMATTR Value 2N3904
SYMBOL Misc\\EuropeanResistor 256 -1024 R90
WINDOW 0 5 56 VBottom 2
WINDOW 3 27 56 VTop 2
SYMATTR InstName R3
SYMATTR Value 10K
SYMBOL cap 16 -928 R180
WINDOW 0 48 32 Left 2
WINDOW 3 48 16 Left 2
SYMATTR InstName C2
SYMATTR Value 0.1µ
SYMATTR SpiceLine V=10 Irms=1.34 Rser=0.0989014 Lser=0 mfg="KEMET" pn="C0805C104K8RAC" type="X7R"
SYMBOL cap 112 -816 R270
WINDOW 0 32 32 VTop 2
WINDOW 3 0 32 VBottom 2
SYMATTR InstName C3
SYMATTR Value 0.001µ
SYMATTR SpiceLine V=10 Irms=41.2m Rser=2.70485 Lser=0 mfg="KEMET" pn="C0805C102K8RAC" type="X7R"
SYMBOL Misc\\EuropeanResistor 320 -848 R90
WINDOW 0 5 56 VBottom 2
WINDOW 3 27 56 VTop 2
SYMATTR InstName R4
SYMATTR Value 330K
SYMBOL Misc\\EuropeanResistor 320 -976 R0
WINDOW 0 32 48 Left 2
WINDOW 3 32 64 Left 2
SYMATTR InstName R5
SYMATTR Value 3.3K
SYMBOL npn 272 -784 R0
WINDOW 0 64 32 Left 2
WINDOW 3 64 48 Left 2
SYMATTR InstName Q2
SYMATTR Value 2N3904
SYMBOL cap 384 -816 R270
WINDOW 0 32 32 VTop 2
WINDOW 3 0 32 VBottom 2
SYMATTR InstName C4
SYMATTR Value 0.001µ
SYMATTR SpiceLine V=10 Irms=41.2m Rser=2.70485 Lser=0 mfg="KEMET" pn="C0805C102K8RAC" type="X7R"
SYMBOL Misc\\EuropeanResistor 592 -848 R90
WINDOW 0 5 56 VBottom 2
WINDOW 3 27 56 VTop 2
SYMATTR InstName R6
SYMATTR Value 330K
SYMBOL Misc\\EuropeanResistor 592 -976 R0
WINDOW 0 32 48 Left 2
WINDOW 3 32 64 Left 2
SYMATTR InstName R7
SYMATTR Value 3.3K
SYMBOL npn 544 -784 R0
WINDOW 0 64 32 Left 2
WINDOW 3 64 48 Left 2
SYMATTR InstName Q3
SYMATTR Value 2N3904
SYMBOL cap 656 -816 R270
WINDOW 0 32 32 VTop 2
WINDOW 3 0 32 VBottom 2
SYMATTR InstName C5
SYMATTR Value 0.001µ
SYMATTR SpiceLine V=10 Irms=41.2m Rser=2.70485 Lser=0 mfg="KEMET" pn="C0805C102K8RAC" type="X7R"
SYMBOL diode 784 -816 R270
WINDOW 0 32 32 VTop 2
WINDOW 3 0 32 VBottom 2
SYMATTR InstName D1
SYMATTR Value 1N4148
SYMBOL Misc\\EuropeanResistor 736 -976 R0
WINDOW 0 32 48 Left 2
WINDOW 3 32 64 Left 2
SYMATTR InstName R8
SYMATTR Value 2.2Meg
SYMBOL Misc\\EuropeanResistor 736 -784 R0
WINDOW 0 32 48 Left 2
WINDOW 3 32 64 Left 2
SYMATTR InstName R9
SYMATTR Value 10K
SYMBOL Misc\\EuropeanResistor 912 -784 R0
WINDOW 0 32 48 Left 2
WINDOW 3 32 64 Left 2
SYMATTR InstName R10
SYMATTR Value 50K
SYMBOL cap 896 -704 R180
WINDOW 0 48 32 Left 2
WINDOW 3 32 16 Left 2
SYMATTR InstName C6
SYMATTR Value 0.01µ
SYMATTR SpiceLine V=10 Irms=272m Rser=0.391699 Lser=0 mfg="KEMET" pn="C0805C103K8RAC" type="X7R"
SYMBOL voltage -288 -976 R0
WINDOW 0 -64 64 VLeft 2
WINDOW 3 -48 128 VLeft 2
WINDOW 123 0 0 Left 2
WINDOW 39 0 0 Left 2
SYMATTR InstName V3
SYMATTR Value SINE(1 0.3 1K)
SYMBOL voltage -288 -768 R0
WINDOW 0 -64 64 VLeft 2
WINDOW 3 -48 128 VLeft 2
WINDOW 123 0 0 Left 2
WINDOW 39 0 0 Left 2
SYMATTR InstName V2
SYMATTR Value SINE(0 10u 500K)
SYMBOL bv -208 -768 R0
WINDOW 0 32 80 Left 2
WINDOW 3 32 96 Left 2
SYMATTR InstName B1
SYMATTR Value V=V(Vm)*V(Vc)
SYMBOL Misc\\EuropeanResistor 1120 -848 R90
WINDOW 0 5 56 VBottom 2
WINDOW 3 27 56 VTop 2
SYMATTR InstName R11
SYMATTR Value 1K
SYMBOL cap 1152 -704 R180
WINDOW 0 32 64 Left 2
WINDOW 3 32 48 Left 2
SYMATTR InstName C7
SYMATTR Value 0.01µ
SYMATTR SpiceLine V=10 Irms=272m Rser=0.391699 Lser=0 mfg="KEMET" pn="C0805C103K8RAC" type="X7R"
SYMBOL Misc\\EuropeanResistor 928 -592 R90
WINDOW 0 5 56 VBottom 2
WINDOW 3 27 56 VTop 2
SYMATTR InstName R12
SYMATTR Value 10K
SYMBOL cap 768 -480 R180
WINDOW 0 48 32 Left 2
WINDOW 3 32 16 Left 2
SYMATTR InstName C8
SYMATTR Value 0.47µ
SYMATTR SpiceLine V=10 Irms=3.75 Rser=0.0298746 Lser=0 mfg="KEMET" pn="C1210C474K8RAC" type="X7R"
TEXT 272 -528 Left 2 !.tran 0 5.0m 0 10n startup
